@<TRIPOS>MOLECULE
9YA
65 70 1 0 0
SMALL
NO_CHARGES


@<TRIPOS>ATOM
      1 C21       -26.2410   24.9400  -37.2370 C.ar      1 9YA    0.0000
      2 C20       -25.9720   25.9080  -38.1920 C.ar      1 9YA    0.0000
      3 C19       -24.8380   25.8350  -38.9910 C.ar      1 9YA    0.0000
      4 C22       -25.3570   23.8800  -37.0760 C.ar      1 9YA    0.0000
      5 C23       -24.2270   23.7920  -37.8790 C.ar      1 9YA    0.0000
      6 C12       -25.0730   29.6570  -42.3610 C.3       1 9YA    0.0000
      7 C13       -25.6530   29.1610  -43.6770 C.3       1 9YA    0.0000
      8 C18       -24.5630   26.8690  -40.0120 C.ar      1 9YA    0.0000
      9 C15       -24.7330   28.8170  -44.8240 C.3       1 9YA    0.0000
     10 C14       -25.5720   30.0820  -44.8810 C.3       1 9YA    0.0000
     11 C05       -27.6370   30.0970  -36.6510 C.ar      1 9YA    0.0000
     12 C06       -26.3460   30.0630  -37.1250 C.ar      1 9YA    0.0000
     13 C07       -26.1020   29.4650  -38.3550 C.ar      1 9YA    0.0000
     14 C08       -27.1450   28.9010  -39.0860 C.ar      1 9YA    0.0000
     15 C09       -26.8640   28.2330  -40.4260 C.3       1 9YA    0.0000
     16 C10       -25.4080   27.8610  -40.6140 C.ar      1 9YA    0.0000
     17 C11       -24.6140   28.5180  -41.4960 C.ar      1 9YA    0.0000
     18 C24       -23.9660   24.7640  -38.8270 C.ar      1 9YA    0.0000
     19 C25       -27.4610   25.0710  -36.3920 C.ar      1 9YA    0.0000
     20 C26       -27.7410   24.1570  -35.3900 C.ar      1 9YA    0.0000
     21 C27       -28.8810   24.3070  -34.6170 C.ar      1 9YA    0.0000
     22 C28       -29.7420   25.3650  -34.7990 C.ar      1 9YA    0.0000
     23 C29       -29.4600   26.2830  -35.7930 C.ar      1 9YA    0.0000
     24 C30       -28.3280   26.1340  -36.5760 C.ar      1 9YA    0.0000
     25 C31       -22.2610   28.3120  -42.1940 C.ar      1 9YA    0.0000
     26 C33       -20.9580   29.4950  -43.5920 C.ar      1 9YA    0.0000
     27 C34       -20.2280   28.3890  -43.6470 C.ar      1 9YA    0.0000
     28 C36       -20.6560   30.7900  -44.3580 C.2       1 9YA    0.0000
     29 C39       -28.4420   28.9420  -38.5760 C.ar      1 9YA    0.0000
     30 C40       -28.6880   29.5320  -37.3440 C.ar      1 9YA    0.0000
     31 N01       -28.5870   32.3620  -35.3830 N.3       1 9YA    0.0000
     32 N16       -23.3670   27.9770  -41.4120 N.ar      1 9YA    0.0000
     33 N17       -23.3430   26.9260  -40.5100 N.ar      1 9YA    0.0000
     34 N32       -22.0970   29.4150  -42.7750 N.ar      1 9YA    0.0000
     35 O03       -26.6110   30.8500  -34.2590 O.2       1 9YA    0.0000
     36 O04       -29.1230   30.0370  -34.3800 O.2       1 9YA    0.0000
     37 O37       -21.4460   31.7180  -44.1380 O.co2     1 9YA    0.0000
     38 O38       -19.6980   30.7010  -45.1400 O.co2     1 9YA    0.0000
     39 S02       -27.9630   30.8370  -35.0460 S.o2      1 9YA    0.0000
     40 S35       -21.0000   27.1000  -42.6240 S.2       1 9YA    0.0000
     41 H20       -26.6560   26.7340  -38.3170 H         1 9YA    0.0000
     42 H22       -25.5480   23.1250  -36.3270 H         1 9YA    0.0000
     43 H23       -23.5490   22.9600  -37.7620 H         1 9YA    0.0000
     44 H122      -24.2230   30.3060  -42.5710 H         1 9YA    0.0000
     45 H123      -25.8340   30.2260  -41.8270 H         1 9YA    0.0000
     46 H13       -26.5590   28.5600  -43.5990 H         1 9YA    0.0000
     47 H152      -23.6530   28.8860  -44.6950 H         1 9YA    0.0000
     48 H153      -25.0740   28.0040  -45.4650 H         1 9YA    0.0000
     49 H142      -26.4110   30.1500  -45.5740 H         1 9YA    0.0000
     50 H143      -25.0250   31.0110  -44.7200 H         1 9YA    0.0000
     51 H06       -25.5380   30.4930  -36.5520 H         1 9YA    0.0000
     52 H07       -25.0960   29.4370  -38.7470 H         1 9YA    0.0000
     53 H092      -27.4650   27.3260  -40.4930 H         1 9YA    0.0000
     54 H093      -27.1600   28.9110  -41.2260 H         1 9YA    0.0000
     55 H24       -23.0820   24.6910  -39.4430 H         1 9YA    0.0000
     56 H26       -27.0720   23.3280  -35.2110 H         1 9YA    0.0000
     57 H27       -29.0990   23.5760  -33.8530 H         1 9YA    0.0000
     58 H28       -30.6190   25.4760  -34.1790 H         1 9YA    0.0000
     59 H29       -30.1240   27.1180  -35.9590 H         1 9YA    0.0000
     60 H30       -28.1170   26.8620  -37.3460 H         1 9YA    0.0000
     61 H34       -19.3150   28.2720  -44.2130 H         1 9YA    0.0000
     62 H39       -29.2570   28.5140  -39.1410 H         1 9YA    0.0000
     63 H40       -29.6870   29.5490  -36.9340 H         1 9YA    0.0000
     64 H011      -28.7950   32.8400  -34.5180 H         1 9YA    0.0000
     65 H012      -29.4330   32.2670  -35.9270 H         1 9YA    0.0000
@<TRIPOS>BOND
     1   11   12 ar
     2   11   30 ar
     3   11   39 1
     4   12   51 1
     5   12   13 ar
     6   13   52 1
     7   13   14 ar
     8   14   15 1
     9   14   29 ar
    10   15   53 1
    11   15   54 1
    12   15   16 1
    13   16    8 ar
    14   16   17 ar
    15   17    6 1
    16   17   32 ar
    17    6   44 1
    18    6   45 1
    19    6    7 1
    20    7   46 1
    21    7    9 1
    22    7   10 1
    23   10   49 1
    24   10   50 1
    25   10    9 1
    26    9   47 1
    27    9   48 1
    28    8    3 1
    29    8   33 ar
    30    3    2 ar
    31    3   18 ar
    32    2   41 1
    33    2    1 ar
    34    1    4 ar
    35    1   19 1
    36    4   42 1
    37    4    5 ar
    38    5   43 1
    39    5   18 ar
    40   18   55 1
    41   19   20 ar
    42   19   24 ar
    43   20   56 1
    44   20   21 ar
    45   21   57 1
    46   21   22 ar
    47   22   58 1
    48   22   23 ar
    49   23   59 1
    50   23   24 ar
    51   24   60 1
    52   25   34 ar
    53   25   32 1
    54   25   40 ar
    55   26   34 ar
    56   26   27 ar
    57   26   28 1
    58   27   61 1
    59   27   40 ar
    60   28   37 1
    61   28   38 2
    62   29   62 1
    63   29   30 ar
    64   30   63 1
    65   64   31 1
    66   65   31 1
    67   31   39 1
    68   32   33 ar
    69   35   39 2
    70   36   39 2
@<TRIPOS>SUBSTRUCTURE
     1 9YA     1 RESIDUE           4 A     9YA     0 ROOT
