@<TRIPOS>MOLECULE
NAI
70 74 1 0 0
SMALL
NO_CHARGES


@<TRIPOS>ATOM
      1 PA        -13.3020   22.1550  -39.3340 P.3       1 NAI    0.0000
      2 O1A       -14.0520   20.9580  -38.7590 O.co2     1 NAI    0.0000
      3 O2A       -12.4410   21.7730  -40.5410 O.co2     1 NAI    0.0000
      4 O5B       -12.2410   22.7730  -38.2120 O.3       1 NAI    0.0000
      5 C5B       -12.6810   22.8790  -36.8640 C.3       1 NAI    0.0000
      6 C4B       -11.3800   22.6710  -36.0000 C.3       1 NAI    0.0000
      7 O4B       -11.9380   22.7950  -34.5420 O.3       1 NAI    0.0000
      8 C3B       -10.9490   21.4780  -36.1460 C.3       1 NAI    0.0000
      9 O3B        -9.5180   21.3940  -36.4990 O.3       1 NAI    0.0000
     10 C2B       -11.1350   20.7670  -34.6490 C.3       1 NAI    0.0000
     11 O2B       -10.0850   19.7840  -34.4570 O.3       1 NAI    0.0000
     12 C1B       -11.0740   21.7550  -33.8270 C.3       1 NAI    0.0000
     13 N9A       -11.7140   21.3190  -32.5670 N.ar      1 NAI    0.0000
     14 C8A       -12.6670   20.4740  -32.1760 C.ar      1 NAI    0.0000
     15 N7A       -12.7060   20.5160  -30.8350 N.ar      1 NAI    0.0000
     16 C5A       -11.7660   21.3660  -30.4260 C.ar      1 NAI    0.0000
     17 C6A       -11.4400   21.7300  -29.1430 C.ar      1 NAI    0.0000
     18 N6A       -11.8110   21.4680  -27.7160 N.pl3     1 NAI    0.0000
     19 N1A       -10.4770   22.6200  -28.9270 N.ar      1 NAI    0.0000
     20 C2A        -9.8000   23.1590  -29.9930 C.ar      1 NAI    0.0000
     21 N3A       -10.1280   22.8040  -31.2820 N.ar      1 NAI    0.0000
     22 C4A       -11.1270   21.8950  -31.4790 C.ar      1 NAI    0.0000
     23 O3        -14.4370   23.2720  -39.7170 O.3       1 NAI    0.0000
     24 PN        -14.1790   24.6610  -40.5060 P.3       1 NAI    0.0000
     25 O1N       -14.5580   24.4540  -41.9640 O.co2     1 NAI    0.0000
     26 O2N       -12.7710   25.1150  -40.3120 O.co2     1 NAI    0.0000
     27 O5D       -15.2480   25.7250  -39.7870 O.3       1 NAI    0.0000
     28 C5D       -15.0980   25.8920  -38.3810 C.3       1 NAI    0.0000
     29 C4D       -16.3550   26.6910  -37.9050 C.3       1 NAI    0.0000
     30 O4D       -16.4130   27.8360  -38.5670 O.3       1 NAI    0.0000
     31 C3D       -17.6010   25.9130  -38.3030 C.3       1 NAI    0.0000
     32 O3D       -18.4720   25.8820  -37.2390 O.3       1 NAI    0.0000
     33 C2D       -18.1760   26.7520  -39.4690 C.3       1 NAI    0.0000
     34 O2D       -19.6450   26.5360  -39.6340 O.3       1 NAI    0.0000
     35 C1D       -17.9270   27.9500  -39.0250 C.3       1 NAI    0.0000
     36 N1N       -18.0740   28.9950  -40.0430 N.ar      1 NAI    0.0000
     37 C2N       -18.6180   30.2850  -39.6590 C.ar      1 NAI    0.0000
     38 C3N       -19.1670   31.2570  -40.7240 C.ar      1 NAI    0.0000
     39 C7N       -19.6510   32.6310  -40.2230 C.2       1 NAI    0.0000
     40 O7N       -19.8350   33.5200  -40.9970 O.2       1 NAI    0.0000
     41 N7N       -19.8730   32.7880  -38.7590 N.3       1 NAI    0.0000
     42 C4N       -18.6810   31.1310  -42.1760 C.ar      1 NAI    0.0000
     43 C5N       -17.6810   29.9550  -42.4030 C.ar      1 NAI    0.0000
     44 C6N       -17.6890   28.7620  -41.4340 C.ar      1 NAI    0.0000
     45 H5B2      -13.4187   22.1087  -36.6391 H         1 NAI    0.0000
     46 H5B3      -13.1009   23.8681  -36.6811 H         1 NAI    0.0000
     47 H4B       -10.6154   23.4172  -36.2160 H         1 NAI    0.0000
     48 H3B       -11.5492   20.9512  -36.8879 H         1 NAI    0.0000
     49 H2B       -12.1114   20.2871  -34.5831 H         1 NAI    0.0000
     50 H1B       -10.0522   22.1020  -33.6730 H         1 NAI    0.0000
     51 H8A       -13.2908   19.8691  -32.8174 H         1 NAI    0.0000
     52 H2A        -9.0036   23.8673  -29.8188 H         1 NAI    0.0000
     53 H5D2      -15.0569   24.9214  -37.8868 H         1 NAI    0.0000
     54 H5D3      -14.1920   26.4588  -38.1668 H         1 NAI    0.0000
     55 H4D       -16.3266   26.8615  -36.8288 H         1 NAI    0.0000
     56 H3D       -17.3467   24.9055  -38.6320 H         1 NAI    0.0000
     57 H2D       -17.6410   26.5559  -40.3982 H         1 NAI    0.0000
     58 H1D       -18.5621   28.1709  -38.1671 H         1 NAI    0.0000
     59 H6A1      -12.5459   20.8104  -27.4978 H         1 NAI    0.0000
     60 H6A2      -11.3263   21.9489  -26.9717 H         1 NAI    0.0000
     61 HO3D      -19.2604   25.3922  -37.4844 H         1 NAI    0.0000
     62 HO2D      -19.8035   25.6477  -39.9617 H         1 NAI    0.0000
     63 HO3B       -9.2645   20.4728  -36.5923 H         1 NAI    0.0000
     64 HO2B      -10.1869   19.0769  -35.0982 H         1 NAI    0.0000
     65 H7N1      -20.3069   33.6819  -38.5777 H         1 NAI    0.0000
     66 H7N2      -20.4761   32.0481  -38.4289 H         1 NAI    0.0000
     67 H5N       -16.9901   29.9791  -43.2327 H         1 NAI    0.0000
     68 H2N       -18.6386   30.5673  -38.6167 H         1 NAI    0.0000
     69 H6N       -17.4163   27.7736  -41.7731 H         1 NAI    0.0000
     70 H4N       -19.0015   31.7944  -42.9657 H         1 NAI    0.0000
@<TRIPOS>BOND
     1   12    7 1
     2   12   10 1
     3   12   13 1
     4   35   30 1
     5   35   33 1
     6   35   36 1
     7   20   19 ar
     8   20   21 ar
     9   10    8 1
    10   10   11 1
    11   33   31 1
    12   33   34 1
    13   37   36 ar
    14   37   38 ar
    15    8    6 1
    16    8    9 1
    17   31   29 1
    18   31   32 1
    19   38   39 1
    20   38   42 ar
    21   22   13 ar
    22   22   16 ar
    23   22   21 ar
    24    6    5 1
    25    6    7 1
    26   29   28 1
    27   29   30 1
    28   42   43 ar
    29   16   15 ar
    30   16   17 ar
    31    5    4 1
    32   28   27 1
    33   43   44 ar
    34   17   18 1
    35   17   19 ar
    36   44   36 ar
    37   39   40 2
    38   39   41 1
    39   14   13 ar
    40   14   15 ar
    41    2    1 1
    42   25   24 1
    43    3    1 1
    44   26   24 1
    45   23    1 1
    46   23   24 1
    47    4    1 1
    48   27   24 1
    49   45    5 1
    50   46    5 1
    51   47    6 1
    52   48    8 1
    53   49   10 1
    54   50   12 1
    55   51   14 1
    56   52   20 1
    57   53   28 1
    58   54   28 1
    59   55   29 1
    60   56   31 1
    61   57   33 1
    62   58   35 1
    63   59   18 1
    64   60   18 1
    65   61   32 1
    66   62   34 1
    67   63    9 1
    68   64   11 1
    69   65   41 1
    70   66   41 1
    71   67   43 1
    72   68   37 1
    73   69   44 1
    74   70   42 1
@<TRIPOS>SUBSTRUCTURE
     1 NAI     1 RESIDUE           4 A     NAI     0 ROOT
