@<TRIPOS>MOLECULE
NAI
70 74 1 0 0
SMALL
NO_CHARGES


@<TRIPOS>ATOM
      1 PA        -13.0870   22.3070  -39.1260 P.3       1 NAI    0.0000
      2 O1A       -13.9180   21.2280  -38.4600 O.co2     1 NAI    0.0000
      3 O2A       -12.2640   21.8260  -40.3080 O.co2     1 NAI    0.0000
      4 O5B       -12.0530   22.9920  -38.0270 O.3       1 NAI    0.0000
      5 C5B       -12.4840   22.9670  -36.6810 C.3       1 NAI    0.0000
      6 C4B       -11.1410   22.7860  -35.8750 C.3       1 NAI    0.0000
      7 O4B       -11.5770   22.9520  -34.3850 O.3       1 NAI    0.0000
      8 C3B       -10.6610   21.6170  -36.0270 C.3       1 NAI    0.0000
      9 O3B        -9.2290   21.6140  -36.3740 O.3       1 NAI    0.0000
     10 C2B       -10.8030   20.9080  -34.5240 C.3       1 NAI    0.0000
     11 O2B        -9.7850   19.8810  -34.3340 O.3       1 NAI    0.0000
     12 C1B       -10.7070   21.8930  -33.7000 C.3       1 NAI    0.0000
     13 N9A       -11.3640   21.4760  -32.4490 N.ar      1 NAI    0.0000
     14 C8A       -12.3400   20.6420  -32.0950 C.ar      1 NAI    0.0000
     15 N7A       -12.4250   20.6690  -30.7600 N.ar      1 NAI    0.0000
     16 C5A       -11.4910   21.5100  -30.3090 C.ar      1 NAI    0.0000
     17 C6A       -11.2080   21.8600  -29.0070 C.ar      1 NAI    0.0000
     18 N6A       -11.6360   21.5940  -27.5950 N.pl3     1 NAI    0.0000
     19 N1A       -10.2390   22.7230  -28.7440 N.ar      1 NAI    0.0000
     20 C2A        -9.5310   23.2790  -29.7770 C.ar      1 NAI    0.0000
     21 N3A        -9.8140   22.9280  -31.0790 N.ar      1 NAI    0.0000
     22 C4A       -10.8120   22.0390  -31.3320 C.ar      1 NAI    0.0000
     23 O3        -14.1840   23.4420  -39.5500 O.3       1 NAI    0.0000
     24 PN        -13.9380   24.7780  -40.4190 P.3       1 NAI    0.0000
     25 O1N       -14.3280   24.5670  -41.8560 O.co2     1 NAI    0.0000
     26 O2N       -12.5580   25.2670  -40.2240 O.co2     1 NAI    0.0000
     27 O5D       -15.0100   25.8510  -39.7190 O.3       1 NAI    0.0000
     28 C5D       -14.8800   25.9840  -38.3060 C.3       1 NAI    0.0000
     29 C4D       -16.1250   26.7800  -37.8190 C.3       1 NAI    0.0000
     30 O4D       -16.1820   27.8930  -38.5330 O.3       1 NAI    0.0000
     31 C3D       -17.3930   26.0060  -38.1560 C.3       1 NAI    0.0000
     32 O3D       -18.2150   26.0410  -37.0540 O.3       1 NAI    0.0000
     33 C2D       -17.9900   26.8240  -39.3210 C.3       1 NAI    0.0000
     34 O2D       -19.4710   26.6570  -39.4200 O.3       1 NAI    0.0000
     35 C1D       -17.6910   28.0250  -38.9260 C.3       1 NAI    0.0000
     36 N1N       -17.8030   29.0620  -39.9430 N.ar      1 NAI    0.0000
     37 C2N       -18.3940   30.3180  -39.5420 C.ar      1 NAI    0.0000
     38 C3N       -18.7420   31.3950  -40.5810 C.ar      1 NAI    0.0000
     39 C7N       -19.4060   32.6870  -40.0790 C.2       1 NAI    0.0000
     40 O7N       -19.7400   33.5260  -40.8510 O.2       1 NAI    0.0000
     41 N7N       -19.6090   32.8400  -38.6240 N.3       1 NAI    0.0000
     42 C4N       -18.5030   31.1670  -42.0700 C.ar      1 NAI    0.0000
     43 C5N       -17.5770   29.9420  -42.3680 C.ar      1 NAI    0.0000
     44 C6N       -17.3490   28.8420  -41.3160 C.ar      1 NAI    0.0000
     45 H5B2      -12.9783   23.9004  -36.4118 H         1 NAI    0.0000
     46 H5B3      -13.1487   22.1204  -36.5093 H         1 NAI    0.0000
     47 H4B       -10.4122   23.5465  -36.1553 H         1 NAI    0.0000
     48 H3B       -11.2353   21.0610  -36.7680 H         1 NAI    0.0000
     49 H2B       -11.7908   20.4566  -34.4313 H         1 NAI    0.0000
     50 H1B        -9.6786   22.2215  -33.5498 H         1 NAI    0.0000
     51 H8A       -12.9506   20.0523  -32.7627 H         1 NAI    0.0000
     52 H2A        -8.7489   23.9944  -29.5701 H         1 NAI    0.0000
     53 H5D2      -14.8550   25.0007  -37.8364 H         1 NAI    0.0000
     54 H5D3      -13.9699   26.5339  -38.0664 H         1 NAI    0.0000
     55 H4D       -16.0646   26.9963  -36.7524 H         1 NAI    0.0000
     56 H3D       -17.1699   24.9826  -38.4576 H         1 NAI    0.0000
     57 H2D       -17.5005   26.5842  -40.2649 H         1 NAI    0.0000
     58 H1D       -18.2847   28.2912  -38.0515 H         1 NAI    0.0000
     59 H6A1      -12.3904   20.9487  -27.4090 H         1 NAI    0.0000
     60 H6A2      -11.1699   22.0601  -26.8297 H         1 NAI    0.0000
     61 HO3D      -19.0234   25.5585  -37.2418 H         1 NAI    0.0000
     62 HO2D      -19.6741   25.7655  -39.7126 H         1 NAI    0.0000
     63 HO3B       -8.9257   20.7088  -36.4751 H         1 NAI    0.0000
     64 HO2B       -9.9133   19.1797  -34.9769 H         1 NAI    0.0000
     65 H7N1      -20.0292   33.7387  -38.4349 H         1 NAI    0.0000
     66 H7N2      -20.2183   32.1068  -38.2904 H         1 NAI    0.0000
     67 H5N       -17.0892   29.8668  -43.3286 H         1 NAI    0.0000
     68 H2N       -18.5940   30.5024  -38.4968 H         1 NAI    0.0000
     69 H6N       -16.8596   27.9186  -41.5883 H         1 NAI    0.0000
     70 H4N       -18.9306   31.7895  -42.8420 H         1 NAI    0.0000
@<TRIPOS>BOND
     1   12    7 1
     2   12   10 1
     3   12   13 1
     4   35   30 1
     5   35   33 1
     6   35   36 1
     7   20   19 ar
     8   20   21 ar
     9   10    8 1
    10   10   11 1
    11   33   31 1
    12   33   34 1
    13   37   36 ar
    14   37   38 ar
    15    8    6 1
    16    8    9 1
    17   31   29 1
    18   31   32 1
    19   38   39 1
    20   38   42 ar
    21   22   13 ar
    22   22   16 ar
    23   22   21 ar
    24    6    5 1
    25    6    7 1
    26   29   28 1
    27   29   30 1
    28   42   43 ar
    29   16   15 ar
    30   16   17 ar
    31    5    4 1
    32   28   27 1
    33   43   44 ar
    34   17   18 1
    35   17   19 ar
    36   44   36 ar
    37   39   40 2
    38   39   41 1
    39   14   13 ar
    40   14   15 ar
    41    2    1 1
    42   25   24 1
    43    3    1 1
    44   26   24 1
    45   23    1 1
    46   23   24 1
    47    4    1 1
    48   27   24 1
    49   45    5 1
    50   46    5 1
    51   47    6 1
    52   48    8 1
    53   49   10 1
    54   50   12 1
    55   51   14 1
    56   52   20 1
    57   53   28 1
    58   54   28 1
    59   55   29 1
    60   56   31 1
    61   57   33 1
    62   58   35 1
    63   59   18 1
    64   60   18 1
    65   61   32 1
    66   62   34 1
    67   63    9 1
    68   64   11 1
    69   65   41 1
    70   66   41 1
    71   67   43 1
    72   68   37 1
    73   69   44 1
    74   70   42 1
@<TRIPOS>SUBSTRUCTURE
     1 NAI     1 RESIDUE           4 A     NAI     0 ROOT
