@<TRIPOS>MOLECULE
P8V
67 72 1 0 0
SMALL
NO_CHARGES


@<TRIPOS>ATOM
      1 C07       -28.1530   24.8220  -35.8260 C.1       1 P8V    0.0000
      2 C08       -27.1540   24.7210  -36.4570 C.1       1 P8V    0.0000
      3 C10       -25.0030   23.7450  -37.1560 C.ar      1 P8V    0.0000
      4 C13       -24.7660   25.7760  -39.0510 C.ar      1 P8V    0.0000
      5 C15       -24.6300   26.8450  -40.0540 C.ar      1 P8V    0.0000
      6 N16       -23.4390   27.0140  -40.5770 N.ar      1 P8V    0.0000
      7 C20       -21.1960   29.6650  -43.6390 C.ar      1 P8V    0.0000
      8 C21       -20.4520   28.5630  -43.7130 C.ar      1 P8V    0.0000
      9 C23       -20.8490   30.9800  -44.3710 C.2       1 P8V    0.0000
     10 C26       -24.8560   28.5030  -41.5080 C.ar      1 P8V    0.0000
     11 C27       -25.5800   27.7740  -40.5960 C.ar      1 P8V    0.0000
     12 C28       -27.0570   27.9620  -40.3210 C.3       1 P8V    0.0000
     13 C29       -27.3810   28.6800  -39.0160 C.ar      1 P8V    0.0000
     14 C32       -27.9620   29.9990  -36.6380 C.ar      1 P8V    0.0000
     15 C33       -26.8830   30.3600  -37.4120 C.ar      1 P8V    0.0000
     16 C40       -25.4030   29.6090  -42.3600 C.3       1 P8V    0.0000
     17 C41       -25.8870   29.0970  -43.7160 C.3       1 P8V    0.0000
     18 C42       -24.8730   28.7730  -44.7950 C.3       1 P8V    0.0000
     19 C43       -25.7470   30.0090  -44.9270 C.3       1 P8V    0.0000
     20 C01       -32.6690   24.2230  -33.0260 C.3       1 P8V    0.0000
     21 C02       -31.4810   24.7540  -33.7640 C.ar      1 P8V    0.0000
     22 C03       -31.1280   26.0250  -33.9930 C.ar      1 P8V    0.0000
     23 C04       -29.9170   26.1810  -34.7550 C.ar      1 P8V    0.0000
     24 C05       -29.3370   25.0230  -35.1030 C.ar      1 P8V    0.0000
     25 C09       -25.9930   24.7150  -37.2770 C.ar      1 P8V    0.0000
     26 C11       -23.9020   23.7910  -37.9840 C.ar      1 P8V    0.0000
     27 C12       -23.7850   24.7980  -38.9340 C.ar      1 P8V    0.0000
     28 C14       -25.8750   25.7220  -38.2210 C.ar      1 P8V    0.0000
     29 C18       -22.4660   28.4280  -42.2640 C.ar      1 P8V    0.0000
     30 C30       -28.4710   28.2900  -38.2370 C.ar      1 P8V    0.0000
     31 C31       -28.7580   28.9390  -37.0380 C.ar      1 P8V    0.0000
     32 C34       -26.5780   29.7370  -38.5940 C.ar      1 P8V    0.0000
     33 F35       -26.1050   31.3900  -37.0180 F         1 P8V    0.0000
     34 N17       -23.5560   28.0540  -41.4740 N.ar      1 P8V    0.0000
     35 N19       -22.3290   29.5610  -42.8120 N.ar      1 P8V    0.0000
     36 N37       -28.8720   32.3750  -35.3680 N.3       1 P8V    0.0000
     37 O24       -21.6750   31.8880  -44.2030 O.co2     1 P8V    0.0000
     38 O25       -19.7890   30.9510  -45.0190 O.co2     1 P8V    0.0000
     39 O38       -26.9770   30.9060  -34.2670 O.2       1 P8V    0.0000
     40 O39       -29.5180   30.0340  -34.4490 O.2       1 P8V    0.0000
     41 S06       -30.2880   23.6170  -34.4940 S.2       1 P8V    0.0000
     42 S22       -21.1740   27.2240  -42.7250 S.2       1 P8V    0.0000
     43 S36       -28.3070   30.8120  -35.0740 S.o2      1 P8V    0.0000
     44 H10       -25.0965   22.9615  -36.4185 H         1 P8V    0.0000
     45 H21       -19.5400   28.4778  -44.2852 H         1 P8V    0.0000
     46 H282      -27.5235   26.9774  -40.2903 H         1 P8V    0.0000
     47 H283      -27.4936   28.5267  -41.1448 H         1 P8V    0.0000
     48 H402      -24.6195   30.3493  -42.5221 H         1 P8V    0.0000
     49 H403      -26.2364   30.0807  -41.8393 H         1 P8V    0.0000
     50 H41       -26.7766   28.4675  -43.6959 H         1 P8V    0.0000
     51 H422      -23.8077   28.8791  -44.5902 H         1 P8V    0.0000
     52 H423      -25.1399   27.9431  -45.4494 H         1 P8V    0.0000
     53 H432      -26.5353   30.0418  -45.6791 H         1 P8V    0.0000
     54 H433      -25.2432   30.9572  -44.7395 H         1 P8V    0.0000
     55 H03       -31.7050   26.8649  -33.6351 H         1 P8V    0.0000
     56 H04       -29.5112   27.1454  -35.0229 H         1 P8V    0.0000
     57 H11       -23.1286   23.0426  -37.8941 H         1 P8V    0.0000
     58 H12       -22.9250   24.8212  -39.5869 H         1 P8V    0.0000
     59 H14       -26.6505   26.4683  -38.3107 H         1 P8V    0.0000
     60 H30       -29.0992   27.4759  -38.5672 H         1 P8V    0.0000
     61 H31       -29.5904   28.6195  -36.4286 H         1 P8V    0.0000
     62 H34       -25.7334   30.0586  -39.1854 H         1 P8V    0.0000
     63 H371      -29.1689   32.7945  -34.4985 H         1 P8V    0.0000
     64 H372      -28.1323   32.9301  -35.7740 H         1 P8V    0.0000
     65 H011      -32.6439   23.1333  -33.0320 H         1 P8V    0.0000
     66 H012      -32.6468   24.5810  -31.9967 H         1 P8V    0.0000
     67 H013      -33.5821   24.5680  -33.5111 H         1 P8V    0.0000
@<TRIPOS>BOND
     1   20   21 1
     2   21   22 ar
     3   21   41 ar
     4   22   23 ar
     5   23   24 ar
     6   24    1 1
     7   24   41 ar
     8    1    2 3
     9    2   25 1
    10   25    3 ar
    11   25   28 ar
    12    3   26 ar
    13   26   27 ar
    14   27    4 ar
    15    4    5 1
    16    4   28 ar
    17    5    6 ar
    18    5   11 ar
    19   29   34 1
    20   29   35 ar
    21   29   42 ar
    22    7    8 ar
    23    7    9 1
    24    7   35 ar
    25    8   42 ar
    26    9   37 1
    27    9   38 2
    28   10   11 ar
    29   10   16 1
    30   10   34 ar
    31   11   12 1
    32   12   13 1
    33   13   30 ar
    34   13   32 ar
    35   30   31 ar
    36   31   14 ar
    37   14   15 ar
    38   14   43 1
    39   15   32 ar
    40   15   33 1
    41   16   17 1
    42   17   18 1
    43   17   19 1
    44   18   19 1
    45    6   34 ar
    46   36   43 1
    47   39   43 2
    48   40   43 2
    49   44    3 1
    50   45    8 1
    51   46   12 1
    52   47   12 1
    53   48   16 1
    54   49   16 1
    55   50   17 1
    56   51   18 1
    57   52   18 1
    58   53   19 1
    59   54   19 1
    60   55   22 1
    61   56   23 1
    62   57   26 1
    63   58   27 1
    64   59   28 1
    65   60   30 1
    66   61   31 1
    67   62   32 1
    68   63   36 1
    69   64   36 1
    70   65   20 1
    71   66   20 1
    72   67   20 1
@<TRIPOS>SUBSTRUCTURE
     1 P8V     1 RESIDUE           4 A     P8V     0 ROOT
